Circuit: * C:\users\srikar\Documents\High_NMOS_Driver.asc

Limiting rise time of source v1 to 0.0002
Limiting fall time of source v1 to 0.0002
WARNING: Node N006 is floating.

.OP point found by inspection.

Date: Tue Jul 04 13:36:47 2023
Total elapsed time: 108.948 seconds.

tnom = 27
temp = 27
method = modified trap
totiter = 5749075
traniter = 5749075
tranpoints = 1683042
accept = 1197762
rejected = 485280
matrix size = 18
fillins = 2
solver = Normal
Matrix Compiler1: 1.01 KB object code size  2.3/1.7/[1.3]
Matrix Compiler2: 1.33 KB object code size  1.4/1.9/[1.3]

