Circuit: * F:\Project RMMD\LT Spice Simualtion\High_NMOS_Driver.asc

WARNING: Node NC_02 is floating.

WARNING: Less than two connections to node NC_01.  This node is used by V1.
WARNING: Less than two connections to node NC_02.  This node is used by V1.
.OP point found by inspection.
