Circuit: * F:\Project RMMD\LT Spice Simualtion\High_NMOS_Driver.asc

WARNING: Node NC_02 is floating.

WARNING: Less than two connections to node NC_01.  This node is used by R3.
WARNING: Less than two connections to node NC_02.  This node is used by R3.
.OP point found by inspection.
Heightened Def Con from 1.55179 to 1.55179

Date: Fri Jul 14 19:21:04 2023
Total elapsed time: 135.287 seconds.

tnom = 27
temp = 27
method = modified trap
totiter = 85884881
traniter = 85884881
tranpoints = 24389528
accept = 19099295
rejected = 5290234
matrix size = 12
fillins = 0
solver = Normal
Matrix Compiler1: 410 bytes object code size  0.1/0.1/[0.1]
Matrix Compiler2: 784 bytes object code size  0.1/0.2/[0.1]

