Circuit: * F:\Project RMMD\LT Spice Simualtion\High_NMOS_Driver.asc

WARNING: Node NC_02 is floating.

WARNING: Less than two connections to node NC_01.  This node is used by R3.
WARNING: Less than two connections to node NC_02.  This node is used by R3.
.OP point found by inspection.

Date: Sat Jul 15 18:42:54 2023
Total elapsed time: 136.353 seconds.

tnom = 27
temp = 27
method = modified trap
totiter = 71533695
traniter = 71533695
tranpoints = 20332959
accept = 15924619
rejected = 4408340
matrix size = 12
fillins = 0
solver = Normal
Matrix Compiler1: 410 bytes object code size  0.2/0.1/[0.1]
Matrix Compiler2: 784 bytes object code size  0.1/0.1/[0.1]

