Circuit: * F:\Project RMMD\LT Spice Simualtion\High_NMOS_Driver.asc

Direct Newton iteration for .op point succeeded.
Heightened Def Con from 3.85806 to 3.85806

Date: Wed Jul 26 00:29:21 2023
Total elapsed time: 57.095 seconds.

tnom = 27
temp = 27
method = modified trap
totiter = 16140246
traniter = 16140229
tranpoints = 4750686
accept = 3402754
rejected = 1347933
matrix size = 24
fillins = 0
solver = Normal
Matrix Compiler1: 848 bytes object code size  0.2/0.2/[0.1]
Matrix Compiler2: 1.56 KB object code size  0.2/0.3/[0.2]

