Circuit: * C:\users\srikar\Documents\Motor_Driver.asc

WARNING: Node NC_01 is floating.
WARNING: Node N004 is floating.

Direct Newton iteration for .op point succeeded.

Date: Wed Jul 12 13:06:36 2023
Total elapsed time: 0.078 seconds.

tnom = 27
temp = 27
method = modified trap
totiter = 1414
traniter = 1380
tranpoints = 336
accept = 322
rejected = 14
matrix size = 34
fillins = 25
solver = Normal
Matrix Compiler1: 3.13 KB object code size  0.6/0.3/[0.2]
Matrix Compiler2: 3.01 KB object code size  0.3/0.4/[0.3]

